7

Cl         0.00000        0.00000       -2.23260
Au         1.69863        0.00000       -0.71222
N          3.20592        0.00000        0.55908
N          4.05327        0.00000        1.26944
Au        -1.69863        0.00000       -0.71222
N         -3.20592        0.00000        0.55908
N         -4.05327        0.00000        1.26944
